600
NaCl Spherical Lattice with Extra Atoms
Na 85.000 85.000 85.000
Na 82.250 82.250 85.000
Na 82.250 85.000 82.250
Na 82.250 85.000 87.750
Na 82.250 87.750 85.000
Na 85.000 82.250 82.250
Na 85.000 82.250 87.750
Na 85.000 87.750 82.250
Na 70.894 122.455 0.019
Na 31.664 58.745 67.450
Na 34.757 149.280 4.656
Na 23.866 33.677 136.127
Na 148.986 152.083 14.458
Na 16.719 71.588 162.841
Na 116.705 141.886 3.109
Na 47.675 134.177 17.548
Na 48.922 22.105 3.292
Na 83.567 9.072 97.600
Na 17.397 70.390 118.048
Na 112.845 87.531 160.581
Na 23.677 137.257 67.605
Na 127.638 123.420 150.162
Na 45.888 152.301 72.776
Na 19.507 161.413 76.485
Na 153.575 97.526 0.488
Na 150.610 60.736 154.451
Na 117.452 169.545 29.298
Na 11.220 128.429 128.159
Na 3.380 4.456 4.812
Na 93.980 143.145 21.109
Na 95.375 3.170 136.108
Na 146.802 127.011 94.561
Na 7.574 18.274 38.371
Na 12.236 164.437 96.577
Na 33.223 98.831 164.903
Na 105.392 140.927 26.655
Na 103.076 96.705 53.952
Na 93.661 126.707 113.770
Na 107.052 35.730 127.968
Na 32.884 108.708 89.194
Na 124.961 131.270 154.329
Na 104.852 161.333 161.530
Na 66.301 82.618 102.733
Na 67.129 163.755 29.572
Na 3.659 161.155 140.610
Na 22.269 137.613 58.605
Na 143.605 153.917 78.180
Na 83.343 101.849 2.641
Na 53.592 151.791 98.236
Na 9.165 71.433 115.442
Na 64.019 165.543 102.802
Na 48.548 99.762 127.504
Na 146.962 54.856 114.034
Na 68.252 53.955 105.726
Na 33.757 72.539 58.369
Na 112.662 45.935 42.902
Na 97.323 124.634 88.232
Na 58.257 11.596 64.247
Na 138.016 148.743 117.030
Na 58.679 38.257 100.727
Na 43.710 18.852 32.804
Na 42.166 144.784 70.694
Na 87.696 81.114 25.954
Na 24.573 127.760 37.748
Na 55.142 148.397 143.601
Na 140.489 145.200 16.786
Na 135.935 5.877 130.941
Na 107.492 58.701 135.420
Na 51.042 24.311 153.222
Na 168.965 92.832 89.492
Na 27.267 126.758 5.168
Na 117.460 32.068 75.124
Na 42.115 44.569 127.529
Na 36.033 135.763 50.546
Na 64.773 127.476 86.894
Na 5.495 120.596 79.050
Na 13.851 72.865 18.533
Na 130.256 58.217 143.795
Na 24.382 13.326 3.117
Na 4.723 128.326 67.125
Na 81.272 80.581 136.538
Na 131.559 21.359 105.147
Na 161.703 153.918 135.314
Na 31.897 105.824 153.988
Na 154.580 68.149 42.475
Na 24.955 44.931 139.245
Na 90.721 53.459 154.831
Na 159.611 5.261 121.869
Na 55.418 146.113 94.948
Na 49.316 1.589 98.049
Na 72.501 42.057 63.120
Na 156.435 38.743 14.872
Na 103.206 70.310 138.780
Na 97.617 59.328 9.684
Na 88.233 29.702 97.022
Na 165.918 153.266 101.253
Na 76.795 63.824 165.810
Na 140.120 107.545 113.685
Na 83.652 124.116 79.667
Na 128.907 54.392 167.345
Na 128.332 78.856 21.220
Na 130.925 22.157 3.896
Na 114.320 116.757 76.372
Na 82.353 146.084 141.168
Na 46.600 95.290 114.194
Na 127.045 49.232 131.546
Na 36.328 130.438 52.469
Na 36.399 33.821 24.228
Na 114.676 135.962 13.690
Na 120.923 94.160 51.768
Na 120.029 81.265 21.456
Na 73.301 68.714 24.948
Na 128.232 35.825 102.162
Na 50.232 124.373 160.702
Na 141.996 32.683 67.166
Na 62.926 90.219 84.000
Na 86.347 44.463 60.700
Na 167.571 30.117 97.309
Na 89.744 125.813 25.488
Na 122.896 30.013 146.534
Na 68.547 128.987 121.878
Na 158.763 145.843 123.905
Na 63.729 130.955 127.606
Na 0.529 131.732 152.391
Na 51.356 150.115 92.338
Na 104.358 55.104 77.751
Na 58.769 114.745 37.652
Na 149.151 76.107 133.358
Na 73.607 154.583 102.931
Na 143.293 11.527 97.456
Na 144.150 42.779 119.123
Na 142.456 1.349 168.188
Na 1.520 139.864 146.406
Na 81.237 22.838 157.734
Na 71.158 116.189 67.658
Na 50.017 17.588 24.534
Na 135.078 86.204 134.610
Na 110.121 30.565 54.709
Na 69.177 165.788 54.454
Na 145.772 105.330 42.846
Na 56.147 118.553 45.671
Na 82.947 145.411 151.026
Na 75.840 156.718 47.428
Na 2.340 70.843 159.542
Na 58.132 24.582 121.851
Na 117.701 38.641 72.190
Na 107.380 120.244 104.310
Na 87.410 148.807 31.272
Na 27.457 58.215 44.520
Na 103.193 24.729 86.634
Na 107.691 21.208 80.000
Na 25.793 108.652 96.163
Na 144.495 127.691 98.491
Na 9.009 33.914 71.868
Na 48.386 10.376 119.598
Na 126.991 57.864 135.201
Na 109.519 59.612 38.965
Na 166.512 61.944 131.650
Na 41.738 154.873 7.401
Na 169.159 9.922 87.840
Na 107.263 166.757 148.733
Na 84.123 89.851 25.633
Na 81.092 76.309 150.620
Na 12.242 71.083 4.378
Na 18.595 114.417 84.989
Na 67.867 135.484 32.585
Na 2.842 67.772 64.784
Na 2.818 19.345 110.804
Na 168.888 141.863 118.936
Na 80.581 59.358 159.333
Na 75.928 149.096 43.109
Na 37.422 114.143 24.275
Na 65.621 97.162 89.386
Na 138.126 48.246 89.734
Na 52.989 113.695 55.414
Na 127.790 129.647 79.811
Na 6.309 117.955 113.960
Na 6.776 22.915 32.881
Na 87.050 104.968 73.500
Na 148.422 111.554 139.911
Na 10.768 71.682 146.851
Na 131.391 143.042 7.359
Na 160.462 104.369 165.493
Na 40.088 159.941 116.317
Na 102.838 124.504 43.085
Na 22.187 143.216 105.119
Na 148.357 71.683 10.953
Na 149.901 82.748 101.739
Na 47.964 150.238 96.507
Na 40.706 22.341 27.514
Na 58.765 101.256 101.827
Na 161.196 90.895 32.735
Na 155.993 100.022 145.382
Na 54.568 20.902 122.622
Na 6.132 34.031 134.011
Na 169.572 98.945 49.874
Na 99.938 44.903 51.899
Na 118.294 12.231 165.084
Na 13.610 81.888 75.764
Na 115.880 118.515 105.162
Na 153.698 39.741 30.035
Na 104.299 129.200 72.703
Na 32.954 139.527 101.938
Na 39.963 78.472 33.761
Na 56.167 143.394 72.835
Na 34.124 90.023 152.054
Na 56.074 116.123 152.868
Na 144.461 113.410 58.538
Na 139.714 106.801 162.571
Na 57.247 168.631 64.640
Na 12.678 62.952 20.981
Na 158.092 25.370 67.130
Na 82.823 71.399 44.540
Na 32.040 116.579 60.386
Na 151.205 99.179 52.572
Na 34.584 152.375 148.426
Na 84.290 61.793 46.853
Na 43.254 150.444 65.155
Na 20.093 142.290 126.503
Na 108.520 55.687 11.473
Na 43.161 100.536 72.895
Na 13.488 51.486 126.090
Na 115.324 85.541 39.254
Na 167.040 155.336 59.053
Na 82.234 100.292 133.835
Na 102.732 162.996 66.780
Na 66.960 117.122 68.680
Na 37.055 157.382 117.239
Na 119.091 158.195 146.645
Na 166.374 40.185 112.302
Na 17.842 66.108 91.458
Na 66.404 118.366 115.342
Na 104.229 159.075 101.471
Na 6.393 130.004 88.108
Na 130.554 9.026 93.339
Na 12.704 47.057 156.270
Na 152.327 165.362 169.748
Na 2.506 165.209 16.110
Na 58.938 60.120 43.153
Na 78.459 47.821 4.924
Na 135.415 55.189 52.340
Na 161.829 150.959 88.066
Na 102.886 168.369 131.566
Na 89.565 70.907 136.112
Na 162.757 163.110 6.437
Na 9.469 49.957 60.523
Na 85.511 109.371 18.912
Na 151.386 64.913 75.447
Na 48.386 154.257 151.394
Na 107.439 35.807 58.670
Na 28.104 33.523 117.475
Na 107.033 5.853 87.754
Na 42.983 38.054 8.081
Na 47.316 108.796 50.098
Na 119.429 84.341 107.646
Na 159.304 136.822 159.465
Na 48.203 46.688 93.743
Na 161.054 83.950 163.866
Na 24.342 107.496 112.521
Na 79.073 137.147 43.632
Na 168.280 30.163 139.646
Na 158.976 151.052 49.174
Na 79.568 107.075 26.865
Na 114.665 93.750 54.680
Na 49.693 33.308 14.950
Na 20.468 1.819 94.736
Na 4.617 136.146 137.017
Na 152.575 77.151 94.830
Na 88.453 140.840 85.982
Na 164.878 126.130 44.165
Na 14.201 105.253 38.164
Na 18.328 14.328 106.271
Na 114.265 32.230 152.274
Na 69.069 126.437 48.958
Na 149.372 43.282 130.252
Na 111.697 143.365 31.236
Na 4.711 14.516 166.840
Na 110.483 6.286 52.974
Na 143.829 157.689 112.278
Na 26.193 152.165 52.872
Na 28.515 86.442 134.617
Na 81.555 160.935 94.084
Na 120.008 152.140 55.955
Na 39.349 72.560 42.179
Na 121.368 56.120 106.324
Na 50.120 155.000 160.225
Na 127.577 127.685 35.993
Na 120.826 126.205 66.345
Na 15.370 21.926 17.895
Na 6.700 41.065 149.441
Na 7.387 161.257 52.920
Na 77.954 158.210 43.842
Na 5.549 123.278 96.144
Na 42.409 37.276 135.942
Na 90.720 125.696 87.617
Na 158.570 158.245 66.456
Na 136.545 43.169 49.437
Na 146.683 59.931 169.640
Na 168.250 79.031 124.879
Na 156.408 157.563 93.839
Na 67.399 106.764 51.107
Cl 82.250 85.000 85.000
Cl 85.000 82.250 85.000
Cl 85.000 85.000 82.250
Cl 85.000 85.000 87.750
Cl 85.000 87.750 85.000
Cl 87.750 85.000 85.000
Cl 51.397 24.949 15.698
Cl 91.599 71.263 116.487
Cl 113.979 70.942 94.977
Cl 164.604 53.282 117.695
Cl 6.639 28.871 149.284
Cl 90.638 117.619 53.638
Cl 127.525 168.106 127.188
Cl 76.142 154.461 49.914
Cl 115.402 35.977 45.143
Cl 24.944 100.182 118.959
Cl 70.410 8.492 91.102
Cl 99.714 153.578 23.371
Cl 28.110 157.676 59.120
Cl 106.024 127.660 59.313
Cl 164.023 112.785 105.688
Cl 98.326 69.383 40.295
Cl 104.915 55.530 89.600
Cl 105.971 2.690 158.004
Cl 23.313 158.541 118.459
Cl 156.914 120.959 21.126
Cl 41.856 146.205 91.601
Cl 47.461 99.579 164.831
Cl 39.606 137.208 65.936
Cl 23.197 10.186 20.628
Cl 121.208 95.152 2.135
Cl 34.560 42.895 126.450
Cl 143.961 40.774 83.941
Cl 3.158 11.904 82.679
Cl 168.065 98.557 64.624
Cl 45.036 11.277 62.914
Cl 11.311 44.254 136.808
Cl 157.217 44.760 11.213
Cl 158.435 2.372 39.842
Cl 94.631 155.653 109.066
Cl 93.423 157.451 156.185
Cl 21.476 22.963 85.963
Cl 2.553 29.953 56.451
Cl 159.818 98.942 149.401
Cl 92.879 135.763 48.572
Cl 100.892 73.725 137.251
Cl 31.282 133.948 104.045
Cl 156.162 0.068 166.049
Cl 140.904 97.701 106.773
Cl 145.913 128.364 118.670
Cl 76.649 64.957 69.838
Cl 73.142 165.546 115.226
Cl 135.599 149.600 153.653
Cl 145.333 89.711 136.367
Cl 131.050 96.706 79.171
Cl 13.536 167.079 30.874
Cl 96.814 27.365 79.370
Cl 53.086 155.772 154.638
Cl 84.929 123.860 35.393
Cl 104.836 39.723 17.334
Cl 105.707 92.482 111.203
Cl 88.290 133.500 3.796
Cl 91.535 147.323 161.467
Cl 110.722 119.598 103.741
Cl 124.394 44.149 43.702
Cl 75.845 133.067 168.380
Cl 92.065 165.706 108.223
Cl 23.023 60.470 4.457
Cl 62.312 146.599 117.755
Cl 98.868 168.258 34.664
Cl 77.686 9.678 86.448
Cl 4.693 100.884 143.453
Cl 91.962 163.104 136.673
Cl 161.083 37.644 45.402
Cl 107.744 136.504 118.456
Cl 72.891 140.082 106.504
Cl 11.343 77.959 19.268
Cl 126.980 76.909 76.515
Cl 68.407 153.797 6.300
Cl 1.762 91.567 0.513
Cl 155.597 24.745 26.814
Cl 168.292 120.891 124.406
Cl 29.483 20.308 138.144
Cl 52.800 167.011 45.329
Cl 62.315 73.711 87.090
Cl 151.473 4.639 88.749
Cl 117.339 76.985 106.813
Cl 52.946 87.935 155.789
Cl 158.416 159.268 143.536
Cl 38.643 53.444 29.710
Cl 31.472 119.319 40.860
Cl 38.898 112.897 84.533
Cl 169.448 138.862 101.043
Cl 5.512 15.908 11.113
Cl 28.557 165.374 130.471
Cl 81.070 2.233 60.011
Cl 77.759 23.403 1.851
Cl 37.440 57.580 89.062
Cl 53.125 85.768 114.554
Cl 88.244 137.698 2.143
Cl 155.514 109.541 0.891
Cl 110.356 114.529 98.345
Cl 59.913 145.491 33.156
Cl 72.715 137.309 60.101
Cl 124.652 126.560 37.637
Cl 64.104 4.527 18.856
Cl 39.389 35.296 155.947
Cl 141.925 74.002 156.988
Cl 165.927 27.172 34.442
Cl 123.984 32.087 109.462
Cl 127.318 108.497 101.512
Cl 72.345 132.971 9.544
Cl 51.014 13.618 153.787
Cl 22.467 35.097 12.952
Cl 18.371 133.884 18.119
Cl 7.624 133.810 32.233
Cl 93.685 36.825 129.063
Cl 3.362 146.240 95.014
Cl 167.845 47.274 0.645
Cl 87.837 120.183 132.690
Cl 104.246 68.317 118.542
Cl 40.684 20.530 37.448
Cl 48.741 23.520 49.325
Cl 75.500 140.783 72.479
Cl 79.432 53.510 106.565
Cl 77.684 111.559 22.413
Cl 130.352 85.799 84.669
Cl 160.270 88.036 33.059
Cl 91.844 161.302 106.137
Cl 13.211 54.762 160.846
Cl 74.771 43.477 136.457
Cl 152.315 83.563 145.639
Cl 85.976 32.224 164.048
Cl 2.396 121.711 95.965
Cl 118.280 132.234 69.102
Cl 29.343 69.468 41.041
Cl 167.023 108.172 63.765
Cl 134.785 73.600 60.777
Cl 137.407 50.199 92.501
Cl 31.345 99.509 152.695
Cl 103.501 116.017 38.795
Cl 58.315 132.557 29.705
Cl 118.882 117.045 43.077
Cl 63.227 60.402 9.801
Cl 110.213 28.890 25.406
Cl 78.683 72.918 84.539
Cl 143.570 136.056 72.529
Cl 50.481 146.141 114.172
Cl 167.717 161.211 109.665
Cl 79.673 72.766 101.876
Cl 157.200 11.006 168.529
Cl 18.277 106.024 8.159
Cl 113.638 64.359 31.993
Cl 82.943 89.364 4.843
Cl 73.760 65.019 79.864
Cl 93.970 151.152 60.342
Cl 161.628 94.589 63.982
Cl 5.287 97.100 30.680
Cl 76.812 120.438 132.170
Cl 62.798 24.178 123.572
Cl 89.695 69.545 45.712
Cl 49.496 85.597 164.209
Cl 132.107 24.413 14.144
Cl 130.522 49.351 36.872
Cl 112.089 12.056 25.943
Cl 68.452 54.574 94.845
Cl 156.104 6.754 11.957
Cl 83.226 91.740 152.194
Cl 46.548 55.821 93.086
Cl 15.997 147.933 40.268
Cl 12.924 148.601 161.693
Cl 57.701 94.293 165.649
Cl 131.661 55.388 151.271
Cl 35.830 7.051 54.711
Cl 73.180 130.524 91.121
Cl 57.063 8.893 102.870
Cl 144.109 77.190 2.619
Cl 161.802 8.655 39.962
Cl 13.876 80.429 21.342
Cl 82.695 40.700 161.921
Cl 58.626 152.635 73.881
Cl 11.035 147.972 119.235
Cl 102.083 138.485 9.199
Cl 90.319 42.209 50.163
Cl 152.487 34.575 140.459
Cl 89.635 106.220 145.357
Cl 19.568 38.590 101.317
Cl 143.628 102.371 163.806
Cl 104.670 10.060 127.554
Cl 127.997 1.244 55.804
Cl 102.794 139.838 149.512
Cl 74.859 21.545 100.270
Cl 2.056 51.569 3.634
Cl 157.921 86.210 77.298
Cl 63.181 41.556 99.373
Cl 128.022 137.048 127.779
Cl 114.320 76.285 119.733
Cl 25.667 129.336 132.778
Cl 66.487 54.496 138.631
Cl 16.905 19.556 63.479
Cl 117.104 83.489 14.990
Cl 4.331 123.998 123.236
Cl 146.997 111.701 98.776
Cl 51.849 148.061 154.487
Cl 12.868 149.360 32.443
Cl 25.734 108.013 144.124
Cl 100.287 33.632 72.986
Cl 168.759 88.197 29.288
Cl 107.868 70.366 168.456
Cl 78.469 95.361 132.662
Cl 154.837 3.786 139.591
Cl 165.616 20.871 31.887
Cl 0.130 38.692 24.719
Cl 119.049 79.985 140.613
Cl 157.206 65.788 83.790
Cl 50.588 121.991 32.448
Cl 100.388 41.292 105.952
Cl 149.692 78.193 129.858
Cl 64.957 21.541 41.525
Cl 104.553 114.310 1.425
Cl 29.732 31.447 143.524
Cl 132.638 92.897 138.795
Cl 17.040 91.291 62.217
Cl 66.805 134.408 109.663
Cl 23.139 76.609 56.851
Cl 101.800 126.932 92.135
Cl 28.465 44.734 12.174
Cl 15.237 35.831 85.480
Cl 57.665 94.503 91.251
Cl 116.842 95.454 60.874
Cl 166.530 74.971 125.734
Cl 0.904 47.124 90.921
Cl 136.169 110.429 158.346
Cl 130.051 101.956 141.605
Cl 23.740 11.992 12.489
Cl 143.095 116.479 82.885
Cl 154.873 123.359 4.407
Cl 150.396 131.071 56.055
Cl 157.779 166.076 89.004
Cl 63.367 120.760 77.459
Cl 56.827 15.130 31.434
Cl 158.644 30.237 146.211
Cl 9.789 0.986 53.156
Cl 162.125 81.082 47.301
Cl 128.870 144.831 143.522
Cl 17.269 38.387 165.124
Cl 156.826 26.545 149.553
Cl 27.186 75.539 14.242
Cl 97.546 148.465 41.588
Cl 146.749 167.302 1.678
Cl 1.729 83.333 7.732
Cl 45.841 100.393 64.691
Cl 60.077 48.797 22.645
Cl 31.515 158.636 159.078
Cl 31.499 75.157 31.504
Cl 109.640 82.334 164.508
Cl 73.753 10.091 83.763
Cl 66.543 40.829 116.695
Cl 39.268 9.856 23.599
Cl 161.120 144.488 73.891
Cl 2.513 45.137 2.625
Cl 132.634 24.784 41.630
Cl 147.896 14.992 116.231
Cl 154.209 146.278 57.537
Cl 147.643 113.840 137.322
Cl 86.042 117.637 116.094
Cl 140.226 47.914 30.344
Cl 98.810 162.395 13.728
Cl 130.081 96.586 113.252
Cl 69.654 14.833 63.081
Cl 161.474 163.467 124.114
Cl 53.451 103.002 101.124
Cl 159.972 0.176 80.935
Cl 145.547 61.942 151.687
Cl 103.615 70.997 28.766
Cl 54.991 103.265 110.641
Cl 98.290 67.782 164.324
Cl 93.243 115.951 40.200
Cl 117.710 20.225 153.126
Cl 14.416 34.419 145.220
Cl 89.760 110.568 101.029
Cl 143.755 167.735 11.317
Cl 43.882 110.671 63.095
Cl 104.304 36.460 159.701
Cl 141.127 40.816 107.376
Cl 129.170 153.499 99.861
Cl 29.364 21.493 132.311
Cl 165.498 102.922 165.961
Cl 135.825 137.807 146.200
Cl 158.856 105.250 167.526
Cl 83.712 44.067 55.561
Cl 85.407 14.142 132.087
Cl 67.991 167.662 4.801
Cl 36.459 105.266 30.255
Cl 155.706 153.496 91.015
Cl 73.727 50.118 7.068
Cl 108.937 122.926 8.689
Cl 163.866 47.762 102.365
Cl 139.291 11.864 7.119
