600
NaCl Spherical Lattice with Extra Atoms
Na 85.000 85.000 85.000
Na 82.250 82.250 85.000
Na 82.250 85.000 82.250
Na 82.250 85.000 87.750
Na 82.250 87.750 85.000
Na 85.000 82.250 82.250
Na 85.000 82.250 87.750
Na 85.000 87.750 82.250
Na 85.000 87.750 87.750
Na 87.750 82.250 85.000
Na 87.750 85.000 82.250
Na 87.750 85.000 87.750
Na 87.750 87.750 85.000
Na 74.119 4.407 93.443
Na 34.790 105.276 50.941
Na 22.879 87.308 31.355
Na 143.915 13.540 85.892
Na 21.617 101.447 38.422
Na 79.524 34.296 108.869
Na 134.918 98.601 27.591
Na 151.218 58.074 96.415
Na 91.053 162.136 92.515
Na 69.067 4.624 42.020
Na 136.044 102.309 130.043
Na 60.626 7.765 167.136
Na 44.157 65.771 141.443
Na 135.559 45.796 99.056
Na 84.503 70.534 59.648
Na 53.254 7.106 125.528
Na 109.453 112.452 28.981
Na 147.716 127.292 135.760
Na 100.654 58.860 44.842
Na 103.435 140.462 106.006
Na 93.144 118.919 41.788
Na 1.743 106.991 50.179
Na 36.537 48.553 80.140
Na 8.308 39.460 109.363
Na 126.098 111.013 135.811
Na 14.886 5.200 60.713
Na 7.395 67.176 113.633
Na 105.339 49.373 104.593
Na 72.312 75.578 86.295
Na 76.539 120.355 132.190
Na 56.419 81.848 127.224
Na 75.577 121.677 1.436
Na 112.535 48.154 34.143
Na 155.841 119.385 85.207
Na 71.032 95.774 149.016
Na 159.990 138.723 22.337
Na 134.696 59.330 96.754
Na 124.216 136.580 7.332
Na 149.706 122.347 121.211
Na 106.478 70.461 159.253
Na 64.735 30.313 132.882
Na 166.682 41.863 134.341
Na 78.496 21.383 91.178
Na 33.813 73.030 109.108
Na 29.852 121.265 150.495
Na 14.924 95.022 30.796
Na 55.038 168.107 169.142
Na 148.796 161.757 144.885
Na 60.046 28.012 151.838
Na 83.181 44.322 68.448
Na 4.955 63.392 16.298
Na 123.930 21.447 42.718
Na 164.409 113.577 85.511
Na 117.867 90.797 7.393
Na 60.778 1.607 43.103
Na 34.450 10.693 16.653
Na 35.037 78.916 70.494
Na 47.646 19.908 117.173
Na 65.684 103.885 88.939
Na 142.991 162.229 0.422
Na 41.649 85.861 115.332
Na 5.585 133.586 72.852
Na 153.654 139.793 63.815
Na 121.243 138.241 55.520
Na 16.335 27.571 118.021
Na 51.104 101.493 97.378
Na 148.910 3.189 15.578
Na 91.708 84.212 51.128
Na 90.583 137.077 5.827
Na 54.043 97.241 63.311
Na 102.300 155.043 82.289
Na 125.608 146.438 16.754
Na 38.080 160.001 109.366
Na 90.384 7.610 92.886
Na 95.898 35.356 92.958
Na 10.396 63.371 73.799
Na 26.511 73.966 63.110
Na 111.114 149.479 0.567
Na 11.171 53.938 99.544
Na 96.896 158.803 97.946
Na 75.900 129.613 108.216
Na 100.936 92.051 100.619
Na 155.294 76.436 118.426
Na 62.162 93.973 45.320
Na 157.083 166.359 70.436
Na 72.115 143.496 33.493
Na 72.020 23.926 52.006
Na 40.590 117.839 110.121
Na 40.896 2.364 86.063
Na 17.467 80.632 49.378
Na 67.560 0.607 84.195
Na 119.368 33.676 59.518
Na 17.253 14.833 142.152
Na 159.625 52.075 30.791
Na 25.522 75.596 39.351
Na 75.769 115.250 51.146
Na 129.686 118.930 110.133
Na 14.115 41.262 168.169
Na 77.559 78.597 57.756
Na 51.150 98.575 115.952
Na 53.358 22.941 109.272
Na 8.967 152.295 123.671
Na 168.584 78.746 18.633
Na 36.858 93.091 90.067
Na 75.242 23.701 168.086
Na 132.885 8.947 55.147
Na 90.816 140.557 75.188
Na 158.607 135.781 58.388
Na 123.914 38.752 75.143
Na 33.124 135.150 18.634
Na 145.442 34.033 79.776
Na 90.180 75.619 61.737
Na 119.228 90.782 48.631
Na 159.935 36.706 58.687
Na 119.829 73.225 41.404
Na 138.758 141.403 48.657
Na 30.932 102.739 19.131
Na 81.431 27.593 11.677
Na 38.773 153.224 107.821
Na 125.721 44.373 159.533
Na 8.012 101.898 81.928
Na 85.514 12.522 155.340
Na 153.447 107.854 52.730
Na 55.401 70.352 37.174
Na 43.053 79.654 136.272
Na 159.914 73.475 74.876
Na 160.048 85.251 61.320
Na 14.876 12.835 160.184
Na 56.987 160.028 78.114
Na 166.615 118.274 62.612
Na 120.964 148.155 116.362
Na 41.341 20.380 43.951
Na 65.030 85.826 49.445
Na 79.125 100.973 114.346
Na 109.527 42.165 130.576
Na 37.767 17.922 118.529
Na 28.889 160.634 151.626
Na 73.699 3.322 122.229
Na 139.539 36.405 11.944
Na 43.413 124.687 96.333
Na 58.067 34.412 94.836
Na 68.975 6.384 51.859
Na 145.240 83.514 58.511
Na 66.470 105.771 31.366
Na 142.422 124.286 26.884
Na 23.302 58.033 25.158
Na 45.874 11.556 91.895
Na 17.997 113.605 17.437
Na 114.468 6.853 38.303
Na 93.650 2.210 51.096
Na 77.612 157.239 74.918
Na 22.044 89.795 52.063
Na 162.789 154.501 153.084
Na 29.216 151.911 120.345
Na 29.207 81.533 67.861
Na 46.600 136.471 91.598
Na 26.174 155.648 84.137
Na 88.632 152.718 21.581
Na 138.814 68.096 113.703
Na 167.701 13.751 96.541
Na 22.301 106.287 35.874
Na 162.395 168.057 50.819
Na 46.131 160.816 136.234
Na 89.242 96.800 30.827
Na 9.509 29.586 32.999
Na 109.717 158.449 39.597
Na 61.016 115.667 145.044
Na 25.954 138.284 167.189
Na 47.034 61.289 32.591
Na 24.676 67.247 27.932
Na 104.438 64.771 116.191
Na 98.979 84.077 101.034
Na 13.037 50.120 117.799
Na 141.469 9.247 15.781
Na 22.293 120.382 129.502
Na 12.479 87.967 83.736
Na 77.054 121.642 164.877
Na 132.612 3.152 98.575
Na 107.082 41.853 34.919
Na 112.799 38.364 28.791
Na 96.548 101.185 29.676
Na 1.284 162.550 24.001
Na 129.653 117.479 130.117
Na 20.619 154.224 157.034
Na 108.251 4.254 37.278
Na 169.813 20.927 46.946
Na 96.863 6.792 88.507
Na 129.075 42.766 153.094
Na 9.590 136.537 18.140
Na 61.549 82.563 142.193
Na 24.842 71.870 90.612
Na 38.287 133.376 169.141
Na 156.741 51.716 47.262
Na 52.587 114.489 3.675
Na 8.719 156.510 79.613
Na 4.076 13.347 155.146
Na 31.513 100.215 44.418
Na 85.129 3.296 18.471
Na 166.051 58.641 30.405
Na 59.791 12.659 77.181
Na 144.296 35.868 134.667
Na 165.640 103.165 47.416
Na 120.482 114.748 163.581
Na 26.103 69.293 9.668
Na 120.476 129.363 36.896
Na 150.000 30.451 68.608
Na 156.873 141.439 59.305
Na 102.572 165.047 55.525
Na 155.558 126.423 122.186
Na 128.691 10.163 148.924
Na 17.414 19.691 165.768
Na 62.780 10.025 144.801
Na 69.156 167.449 169.074
Na 73.835 97.882 69.733
Na 158.970 88.584 11.321
Na 24.694 100.498 66.430
Na 163.245 15.435 58.758
Na 100.053 26.967 136.258
Na 169.513 166.216 141.283
Na 95.034 30.955 34.218
Na 129.344 94.322 14.548
Na 47.288 71.953 25.912
Na 166.210 21.622 49.857
Na 89.955 40.081 34.249
Na 116.690 150.228 43.751
Na 55.040 23.460 17.642
Na 98.346 75.811 109.691
Na 131.538 80.558 123.456
Na 122.962 1.867 67.988
Na 40.676 60.373 119.076
Na 54.849 130.165 99.550
Na 58.095 161.824 41.353
Na 24.012 166.948 76.212
Na 16.075 84.343 1.670
Na 131.337 90.022 28.280
Na 53.666 99.539 98.911
Na 6.756 33.662 158.817
Na 31.798 114.528 101.120
Na 38.035 96.837 121.775
Na 164.904 46.636 167.421
Na 20.070 106.342 0.770
Na 151.446 143.280 107.392
Na 151.977 27.707 4.619
Na 151.206 59.936 139.079
Na 122.402 61.542 18.340
Na 62.048 130.042 69.346
Na 147.750 101.521 123.229
Na 54.949 45.056 26.404
Na 77.365 136.430 143.880
Na 98.476 55.633 70.085
Na 56.527 19.008 70.281
Na 65.150 91.408 12.668
Na 95.732 137.894 133.023
Na 62.344 7.965 39.378
Na 7.101 135.979 47.712
Na 154.688 33.136 127.388
Na 103.720 90.329 143.038
Na 126.690 118.185 138.026
Na 1.412 144.702 139.522
Na 151.242 84.059 150.488
Na 61.189 88.810 111.314
Na 69.924 38.478 138.130
Na 112.195 72.736 14.604
Na 13.662 100.478 47.129
Na 98.178 117.086 136.837
Na 141.706 127.120 40.411
Na 9.744 126.152 73.897
Na 42.108 68.682 6.302
Na 29.154 143.541 28.548
Na 160.898 73.457 110.636
Na 167.311 129.427 120.102
Na 74.457 97.007 115.467
Na 23.783 122.686 127.012
Na 140.586 21.924 109.167
Na 130.425 151.433 83.693
Na 64.875 115.401 100.769
Na 80.033 161.614 93.575
Na 52.129 67.350 58.551
Na 31.945 144.512 163.828
Na 146.753 75.319 159.744
Na 69.745 97.712 88.661
Na 54.611 144.484 0.678
Na 81.483 22.326 99.366
Na 10.209 55.534 81.637
Na 131.556 45.404 112.783
Na 97.462 136.153 59.828
Na 151.983 15.595 64.418
Na 39.438 56.384 106.518
Na 148.331 158.324 61.375
Na 158.814 1.375 71.053
Na 32.764 98.049 66.373
Cl 82.250 85.000 85.000
Cl 85.000 82.250 85.000
Cl 85.000 85.000 82.250
Cl 85.000 85.000 87.750
Cl 85.000 87.750 85.000
Cl 87.750 85.000 85.000
Cl 74.005 71.463 56.157
Cl 45.361 105.593 89.954
Cl 133.507 145.176 84.020
Cl 11.099 72.781 16.410
Cl 18.181 37.452 59.470
Cl 82.122 85.890 65.772
Cl 119.128 163.974 85.001
Cl 72.683 74.247 132.015
Cl 13.956 62.278 144.645
Cl 11.415 168.955 164.999
Cl 28.768 49.814 89.091
Cl 75.030 85.680 55.002
Cl 125.247 64.466 2.213
Cl 4.344 112.574 65.879
Cl 93.666 165.395 19.172
Cl 111.777 36.488 70.848
Cl 149.881 132.261 22.772
Cl 92.369 37.542 156.138
Cl 155.366 71.355 91.833
Cl 30.041 100.514 83.175
Cl 31.727 18.799 46.590
Cl 31.839 16.199 48.238
Cl 93.414 143.669 168.047
Cl 27.449 147.925 36.958
Cl 5.312 39.028 119.787
Cl 100.263 8.878 11.163
Cl 33.665 148.965 73.506
Cl 162.122 76.163 35.198
Cl 89.375 7.213 27.951
Cl 132.108 85.472 162.647
Cl 145.833 70.458 144.276
Cl 4.284 159.877 17.363
Cl 66.017 157.403 96.947
Cl 86.035 37.200 0.793
Cl 115.189 143.197 157.447
Cl 58.927 35.445 147.455
Cl 136.872 141.637 34.985
Cl 18.222 73.964 37.550
Cl 130.876 56.227 38.864
Cl 109.217 65.773 145.370
Cl 80.275 44.112 117.708
Cl 129.597 20.407 142.613
Cl 50.407 29.873 13.470
Cl 14.854 121.674 17.297
Cl 167.134 110.994 81.215
Cl 87.448 103.518 141.646
Cl 140.446 118.006 124.724
Cl 108.960 12.495 105.975
Cl 140.231 89.529 78.786
Cl 74.234 2.560 151.794
Cl 33.484 160.212 63.116
Cl 149.810 153.560 48.898
Cl 64.260 57.353 161.842
Cl 42.084 160.339 94.666
Cl 43.219 29.017 58.647
Cl 84.444 11.842 158.976
Cl 49.527 55.000 35.972
Cl 109.569 52.960 149.651
Cl 55.260 158.064 144.194
Cl 83.660 159.445 22.853
Cl 56.569 52.082 131.886
Cl 106.932 119.936 16.740
Cl 33.115 10.677 52.464
Cl 37.449 55.657 163.942
Cl 23.760 45.326 136.540
Cl 45.125 42.285 49.245
Cl 58.006 37.451 95.686
Cl 86.946 133.659 138.126
Cl 26.191 127.191 65.428
Cl 154.620 65.785 142.162
Cl 162.947 98.041 4.717
Cl 163.785 95.782 125.919
Cl 92.364 163.436 94.685
Cl 126.541 62.629 115.485
Cl 80.918 57.412 112.648
Cl 165.557 118.694 106.384
Cl 159.868 76.979 145.367
Cl 157.214 161.720 26.339
Cl 89.102 73.971 155.155
Cl 31.481 166.953 169.746
Cl 31.491 98.464 111.221
Cl 120.528 131.066 15.139
Cl 65.899 8.680 112.819
Cl 34.659 50.355 143.117
Cl 131.442 28.569 126.524
Cl 139.216 12.295 143.838
Cl 120.592 75.868 39.655
Cl 10.867 138.128 23.831
Cl 144.658 158.055 78.763
Cl 52.598 41.303 162.128
Cl 119.034 138.596 128.076
Cl 78.110 23.284 72.654
Cl 28.721 80.388 106.235
Cl 148.822 51.610 47.201
Cl 61.006 56.720 106.231
Cl 54.805 169.708 40.507
Cl 20.665 0.947 126.744
Cl 164.239 156.625 99.155
Cl 164.450 138.717 168.627
Cl 65.217 99.310 33.408
Cl 56.804 72.222 64.696
Cl 55.086 152.779 114.856
Cl 20.672 126.900 98.387
Cl 145.822 9.023 19.219
Cl 33.703 105.338 75.422
Cl 79.861 19.318 109.000
Cl 50.154 53.702 40.061
Cl 76.472 17.189 100.195
Cl 114.724 75.249 93.593
Cl 80.022 49.490 17.916
Cl 104.169 45.834 81.543
Cl 43.524 154.049 86.612
Cl 81.370 139.946 148.919
Cl 20.221 168.003 107.272
Cl 65.829 49.077 90.509
Cl 30.189 122.931 70.895
Cl 16.238 2.049 35.205
Cl 83.727 153.535 1.955
Cl 141.180 154.583 37.187
Cl 162.715 27.236 138.083
Cl 101.928 129.186 147.904
Cl 10.333 135.060 20.611
Cl 147.075 30.666 36.647
Cl 156.351 74.870 161.810
Cl 168.187 76.456 79.902
Cl 162.035 84.471 21.460
Cl 153.119 2.914 161.096
Cl 81.254 30.550 166.985
Cl 62.549 97.467 154.789
Cl 146.811 157.134 92.297
Cl 110.573 64.722 102.070
Cl 75.860 58.576 119.336
Cl 15.134 121.855 38.099
Cl 70.506 47.447 151.772
Cl 91.258 71.361 16.556
Cl 127.097 74.077 9.230
Cl 67.704 24.044 75.390
Cl 111.764 99.719 137.180
Cl 62.692 149.820 131.839
Cl 47.004 122.510 48.203
Cl 76.218 107.493 1.787
Cl 14.665 92.742 156.476
Cl 0.376 109.584 54.745
Cl 95.392 76.456 64.013
Cl 154.977 0.327 41.341
Cl 47.799 68.077 80.476
Cl 107.675 111.511 4.875
Cl 11.320 76.787 62.006
Cl 48.482 55.296 1.349
Cl 154.670 26.893 108.522
Cl 34.451 169.262 123.070
Cl 149.925 27.362 109.462
Cl 112.810 51.518 12.734
Cl 17.741 165.246 86.682
Cl 36.360 107.599 89.436
Cl 57.704 26.828 84.908
Cl 155.164 54.379 78.243
Cl 67.766 14.343 155.437
Cl 92.317 104.003 144.871
Cl 153.553 67.408 43.287
Cl 64.317 68.212 106.156
Cl 44.968 122.444 117.232
Cl 33.766 84.414 15.690
Cl 12.678 30.614 82.927
Cl 72.948 91.157 62.478
Cl 168.303 56.724 101.746
Cl 134.783 105.713 96.148
Cl 107.708 98.844 25.261
Cl 168.367 156.956 63.253
Cl 91.497 30.320 8.338
Cl 88.826 106.697 54.144
Cl 1.306 164.033 39.968
Cl 158.565 143.506 55.538
Cl 31.679 133.920 123.121
Cl 32.446 114.019 68.952
Cl 149.924 95.233 142.842
Cl 3.590 76.722 73.075
Cl 47.400 81.018 121.933
Cl 144.612 86.281 166.525
Cl 55.125 129.826 78.244
Cl 58.339 50.066 159.168
Cl 92.502 44.635 51.751
Cl 32.138 34.469 128.811
Cl 85.875 119.560 56.863
Cl 77.130 83.337 167.574
Cl 14.040 58.041 161.316
Cl 158.627 165.375 155.016
Cl 50.519 149.197 7.038
Cl 74.665 58.336 47.244
Cl 104.921 154.253 142.241
Cl 43.479 96.269 165.618
Cl 43.190 145.530 29.563
Cl 153.805 49.498 37.756
Cl 26.149 18.858 88.965
Cl 104.586 34.115 118.295
Cl 36.558 83.355 88.929
Cl 111.473 43.730 73.525
Cl 15.035 76.563 91.379
Cl 164.423 91.052 163.652
Cl 166.414 12.162 80.890
Cl 10.991 53.502 29.014
Cl 156.822 94.158 60.532
Cl 10.407 149.132 110.813
Cl 147.987 17.037 37.277
Cl 26.396 4.280 13.581
Cl 130.906 167.123 148.327
Cl 108.319 120.239 70.176
Cl 156.489 167.847 99.781
Cl 19.235 126.868 30.423
Cl 31.774 145.886 152.239
Cl 167.317 16.370 108.122
Cl 112.809 10.293 77.063
Cl 38.523 129.723 112.665
Cl 6.669 128.329 135.267
Cl 157.532 42.680 22.412
Cl 120.367 14.173 2.799
Cl 3.194 150.189 143.963
Cl 11.499 77.709 53.691
Cl 76.680 85.442 93.771
Cl 120.044 143.848 163.117
Cl 14.541 25.938 120.051
Cl 40.260 63.045 104.283
Cl 169.423 150.132 162.439
Cl 136.659 158.341 104.873
Cl 98.851 96.331 156.891
Cl 48.128 11.048 52.079
Cl 89.091 128.661 76.937
Cl 131.749 145.238 27.384
Cl 96.153 5.016 6.526
Cl 32.402 67.360 153.905
Cl 9.061 165.368 18.750
Cl 161.386 112.286 32.680
Cl 124.185 22.568 86.153
Cl 7.104 155.390 151.229
Cl 125.495 36.397 9.863
Cl 141.312 66.631 25.436
Cl 6.327 108.505 74.199
Cl 11.364 112.865 12.988
Cl 98.314 152.604 119.064
Cl 33.075 32.750 32.263
Cl 137.287 101.837 51.487
Cl 12.861 164.022 105.168
Cl 50.865 133.229 139.973
Cl 26.354 93.427 8.609
Cl 113.040 72.421 54.278
Cl 149.728 25.957 65.787
Cl 142.887 89.266 20.953
Cl 102.919 36.334 146.494
Cl 112.237 139.220 134.212
Cl 51.607 82.270 68.463
Cl 23.753 61.860 18.291
Cl 43.665 72.513 46.349
Cl 35.453 33.773 94.875
Cl 163.964 164.913 60.652
Cl 8.810 41.569 25.884
Cl 24.053 12.977 63.149
Cl 74.186 103.982 10.135
Cl 17.717 78.538 111.221
Cl 87.207 58.818 123.938
Cl 25.120 56.236 122.033
Cl 100.169 72.793 23.888
Cl 134.307 36.627 99.123
Cl 123.383 14.506 115.811
Cl 68.702 167.603 161.548
Cl 122.238 22.136 77.810
Cl 146.695 104.181 48.594
Cl 165.640 45.000 11.663
Cl 65.968 41.366 168.343
Cl 98.501 112.051 90.936
Cl 147.883 39.775 92.134
Cl 66.567 144.708 142.829
Cl 134.103 75.741 56.388
Cl 32.748 145.731 27.699
Cl 88.355 22.748 121.600
Cl 88.054 111.271 154.161
Cl 30.714 116.641 144.938
Cl 150.106 129.011 70.047
Cl 7.981 3.677 68.051
Cl 48.832 121.701 62.303
Cl 112.014 18.175 21.610
Cl 146.651 0.873 20.457
Cl 90.668 0.153 91.902
Cl 105.423 76.963 135.616
Cl 55.990 20.561 19.488
Cl 143.933 49.610 31.748
Cl 142.436 166.649 111.167
Cl 147.192 124.063 16.645
Cl 127.073 82.038 4.604
Cl 137.683 88.745 81.011
Cl 40.064 79.598 79.618
