600
NaCl Spherical Lattice with Extra Atoms
Na 85.000 85.000 85.000
Na 82.250 82.250 85.000
Na 82.250 85.000 82.250
Na 82.250 85.000 87.750
Na 82.250 87.750 85.000
Na 85.000 82.250 82.250
Na 85.000 82.250 87.750
Na 85.000 87.750 82.250
Na 85.000 87.750 87.750
Na 87.750 82.250 85.000
Na 87.750 85.000 82.250
Na 87.750 85.000 87.750
Na 87.750 87.750 85.000
Na 164.395 93.029 165.356
Na 165.967 1.059 43.007
Na 146.709 167.178 27.853
Na 7.507 162.631 74.145
Na 29.438 12.741 102.126
Na 89.744 159.387 88.688
Na 89.149 108.394 68.254
Na 130.459 30.426 63.848
Na 94.306 106.238 152.235
Na 84.625 31.016 156.125
Na 153.793 68.820 56.300
Na 101.267 14.392 101.535
Na 87.505 102.606 11.062
Na 61.821 130.519 8.251
Na 97.179 143.430 82.915
Na 113.378 25.284 61.974
Na 80.346 66.773 105.218
Na 71.236 153.412 166.535
Na 115.377 140.424 59.067
Na 129.120 135.052 69.467
Na 79.133 129.709 127.979
Na 2.715 92.359 5.759
Na 75.028 46.320 161.444
Na 107.388 48.966 69.296
Na 122.477 93.827 30.764
Na 12.521 22.908 125.808
Na 133.744 116.998 57.787
Na 55.815 54.838 158.999
Na 14.776 15.455 94.704
Na 162.487 25.821 37.669
Na 20.136 63.808 5.062
Na 106.106 104.008 158.674
Na 154.269 31.486 69.357
Na 146.311 28.070 39.227
Na 66.852 45.962 20.949
Na 34.470 86.936 161.215
Na 93.297 101.966 163.498
Na 165.904 125.205 162.173
Na 30.574 74.294 147.241
Na 39.415 21.249 39.743
Na 68.648 96.453 108.143
Na 167.658 17.768 71.852
Na 151.079 65.305 28.514
Na 109.362 103.718 38.895
Na 99.266 75.711 143.150
Na 11.617 60.407 116.626
Na 69.604 149.053 146.180
Na 108.607 72.786 85.987
Na 20.947 154.269 115.101
Na 95.376 97.210 25.753
Na 123.035 55.557 81.065
Na 68.046 97.110 20.312
Na 120.224 87.534 4.607
Na 111.790 42.524 73.997
Na 51.819 10.801 144.198
Na 154.469 124.868 141.326
Na 48.737 95.517 145.774
Na 48.503 118.499 162.361
Na 25.114 10.477 110.331
Na 81.547 103.045 167.027
Na 106.274 145.039 84.666
Na 154.179 54.852 123.147
Na 118.159 83.618 97.227
Na 64.709 132.924 148.305
Na 49.105 13.891 48.977
Na 106.460 90.968 163.422
Na 136.291 127.735 159.987
Na 11.527 163.485 80.738
Na 110.755 141.800 97.146
Na 56.575 20.558 115.717
Na 143.428 67.399 155.091
Na 28.777 30.953 129.992
Na 163.837 141.984 39.504
Na 45.373 109.114 120.215
Na 129.879 88.590 33.048
Na 130.091 29.922 116.438
Na 155.066 99.566 50.008
Na 97.665 51.048 56.060
Na 65.825 84.071 37.692
Na 62.938 81.957 153.596
Na 150.528 78.631 32.881
Na 136.916 3.233 105.506
Na 151.378 132.998 60.897
Na 116.722 129.402 149.535
Na 122.247 166.746 154.492
Na 54.014 108.607 99.533
Na 11.033 10.668 63.984
Na 80.280 3.157 157.847
Na 144.603 158.718 22.642
Na 155.530 134.382 142.184
Na 7.409 0.154 166.021
Na 23.150 154.956 156.016
Na 121.201 166.315 73.917
Na 10.010 18.362 150.120
Na 168.414 156.341 106.793
Na 165.864 130.605 108.299
Na 24.873 146.620 97.473
Na 160.951 10.986 6.834
Na 63.846 103.575 20.614
Na 26.617 165.418 6.996
Na 43.912 116.784 115.274
Na 13.942 3.730 68.963
Na 85.122 162.367 118.938
Na 13.163 33.434 11.831
Na 5.422 23.484 47.141
Na 60.187 154.309 168.893
Na 2.481 21.333 33.328
Na 46.483 94.671 114.215
Na 7.843 78.745 62.914
Na 116.392 85.539 146.904
Na 81.211 102.354 117.503
Na 129.050 149.396 103.289
Na 67.822 57.069 55.607
Na 124.010 100.653 119.920
Na 28.582 46.803 90.867
Na 8.280 104.226 97.500
Na 10.908 21.963 30.237
Na 166.117 71.384 25.770
Na 105.720 103.927 167.391
Na 125.333 61.438 140.891
Na 129.352 88.158 40.265
Na 130.093 91.344 90.646
Na 12.548 162.523 83.857
Na 116.448 52.833 17.222
Na 144.351 108.230 12.303
Na 66.762 63.392 29.933
Na 35.173 99.634 69.372
Na 102.483 67.360 3.983
Na 55.823 34.311 130.880
Na 86.205 9.300 35.345
Na 127.417 14.505 67.125
Na 34.907 3.497 118.863
Na 163.655 123.032 70.114
Na 45.400 109.670 73.762
Na 7.859 52.192 135.580
Na 150.847 43.606 106.674
Na 20.106 69.206 60.688
Na 93.222 108.860 158.423
Na 66.361 39.484 44.071
Na 38.285 120.482 45.963
Na 151.096 168.999 129.919
Na 82.976 160.657 127.190
Na 26.402 130.562 113.507
Na 27.307 53.864 77.354
Na 39.363 105.797 145.128
Na 167.249 61.033 17.053
Na 89.590 43.124 110.309
Na 71.619 110.785 12.076
Na 160.239 158.413 121.286
Na 49.240 58.139 76.210
Na 88.177 30.138 62.856
Na 121.041 134.593 113.221
Na 148.839 156.068 127.654
Na 146.245 79.362 2.280
Na 157.309 106.359 122.095
Na 101.596 76.818 33.005
Na 146.348 50.024 139.074
Na 148.117 100.413 135.055
Na 108.345 30.835 25.234
Na 43.288 89.312 82.895
Na 68.042 29.087 7.602
Na 103.756 58.735 165.254
Na 108.891 10.863 72.308
Na 30.842 43.955 58.209
Na 47.347 146.784 92.958
Na 168.553 71.197 107.460
Na 88.400 147.764 36.575
Na 114.907 163.821 44.208
Na 1.046 152.311 151.087
Na 57.027 20.986 114.670
Na 12.831 168.607 39.713
Na 1.633 157.146 55.847
Na 129.446 92.222 82.274
Na 16.345 23.701 158.622
Na 148.826 133.619 123.193
Na 145.596 136.599 92.992
Na 29.771 101.249 5.791
Na 23.069 30.960 162.367
Na 4.163 121.756 62.126
Na 94.486 115.106 109.570
Na 127.649 118.676 143.442
Na 32.268 95.770 94.353
Na 107.294 15.446 61.022
Na 99.899 135.544 111.925
Na 157.623 72.758 106.612
Na 160.508 73.691 163.549
Na 65.986 132.592 68.483
Na 113.780 131.062 117.960
Na 7.844 77.728 91.341
Na 152.241 161.153 62.490
Na 120.835 5.265 34.182
Na 22.605 165.686 128.518
Na 102.683 153.487 55.996
Na 27.710 165.623 40.980
Na 123.476 10.764 89.045
Na 133.360 119.634 129.387
Na 122.037 167.982 52.556
Na 29.839 140.340 19.091
Na 160.627 50.394 30.905
Na 92.876 166.194 122.320
Na 39.264 29.141 30.093
Na 48.315 100.607 28.097
Na 165.186 167.239 10.813
Na 127.033 27.844 4.529
Na 160.884 44.588 136.548
Na 109.137 10.585 83.689
Na 78.226 92.816 63.927
Na 14.487 148.981 139.528
Na 6.019 168.787 16.845
Na 65.918 90.780 70.369
Na 69.382 116.686 144.118
Na 50.392 82.612 73.795
Na 29.418 76.518 151.122
Na 58.755 23.887 125.265
Na 42.537 72.660 56.534
Na 63.896 77.314 110.431
Na 63.509 124.126 116.498
Na 61.058 114.427 29.056
Na 36.904 84.028 159.635
Na 36.316 165.177 40.058
Na 137.751 102.505 81.331
Na 11.615 27.774 121.438
Na 13.886 27.064 163.770
Na 56.455 66.748 153.388
Na 46.091 12.439 67.006
Na 49.079 57.960 13.355
Na 112.329 29.600 17.738
Na 56.975 28.053 111.608
Na 149.989 134.980 124.889
Na 55.013 100.657 141.240
Na 41.394 91.388 157.835
Na 53.791 68.180 158.457
Na 105.138 66.287 105.967
Na 49.632 151.996 80.965
Na 35.295 156.440 25.936
Na 100.489 102.469 143.600
Na 7.100 114.527 91.666
Na 92.215 152.532 55.963
Na 132.209 91.186 86.144
Na 49.353 142.864 34.114
Na 32.917 85.255 61.050
Na 102.668 54.738 46.122
Na 47.471 10.079 155.761
Na 8.580 66.798 72.854
Na 3.164 162.946 106.107
Na 17.582 93.461 110.796
Na 40.181 142.343 121.269
Na 32.404 77.772 109.274
Na 131.909 162.670 6.662
Na 74.613 105.343 164.321
Na 149.556 22.923 102.397
Na 107.523 148.878 110.958
Na 78.898 82.368 19.410
Na 91.706 154.400 50.566
Na 161.462 53.914 92.525
Na 17.079 128.582 8.654
Na 163.032 82.830 71.431
Na 3.466 96.315 140.624
Na 28.073 50.575 32.367
Na 61.430 76.896 81.360
Na 100.819 167.542 12.116
Na 106.132 88.962 85.439
Na 127.328 81.464 32.459
Na 109.026 35.872 102.483
Na 41.197 152.154 41.014
Na 68.001 65.988 85.684
Na 141.741 102.779 122.513
Na 142.653 58.639 150.633
Na 11.888 131.116 113.118
Na 135.166 34.248 8.122
Na 166.292 31.828 79.051
Na 148.425 157.837 5.361
Na 115.221 91.343 132.971
Na 47.277 19.789 4.657
Na 76.497 7.603 49.551
Na 116.860 10.346 157.578
Na 129.669 111.072 116.504
Na 168.279 19.467 26.590
Na 106.450 24.967 72.134
Na 114.795 141.867 52.270
Na 133.256 119.811 36.304
Na 84.330 62.739 50.522
Na 108.738 106.902 85.679
Na 117.101 60.610 17.956
Na 37.856 129.476 115.547
Na 7.682 54.750 117.442
Na 69.197 146.767 121.024
Na 30.351 118.441 49.202
Cl 82.250 85.000 85.000
Cl 85.000 82.250 85.000
Cl 85.000 85.000 82.250
Cl 85.000 85.000 87.750
Cl 85.000 87.750 85.000
Cl 87.750 85.000 85.000
Cl 82.250 82.250 82.250
Cl 82.250 82.250 87.750
Cl 82.250 87.750 82.250
Cl 82.250 87.750 87.750
Cl 87.750 82.250 82.250
Cl 121.519 118.614 36.735
Cl 73.915 132.495 33.606
Cl 101.547 1.528 65.717
Cl 161.326 133.672 147.269
Cl 28.555 124.675 69.435
Cl 18.393 26.898 92.684
Cl 110.467 67.473 106.066
Cl 85.431 116.733 43.126
Cl 61.685 108.385 32.546
Cl 73.410 141.132 70.852
Cl 97.264 143.725 146.372
Cl 41.727 124.541 152.091
Cl 91.813 21.962 104.476
Cl 18.669 116.284 87.491
Cl 137.725 86.741 157.543
Cl 147.182 59.548 32.134
Cl 74.250 44.357 70.120
Cl 106.007 14.141 124.610
Cl 10.010 104.010 21.082
Cl 160.446 29.543 160.240
Cl 166.806 165.457 6.815
Cl 111.772 90.933 113.315
Cl 123.806 1.075 16.886
Cl 132.860 60.205 157.387
Cl 69.631 129.690 168.435
Cl 141.743 15.091 141.001
Cl 75.572 62.277 142.879
Cl 156.398 164.675 137.283
Cl 145.551 150.314 108.264
Cl 56.524 43.657 53.075
Cl 91.423 160.791 75.671
Cl 124.868 140.220 57.094
Cl 125.367 56.688 150.643
Cl 8.914 145.983 57.668
Cl 77.680 39.902 95.736
Cl 63.212 162.217 9.725
Cl 157.281 86.854 129.113
Cl 159.612 81.900 112.182
Cl 98.129 47.507 20.874
Cl 65.209 7.293 142.581
Cl 22.583 14.060 26.610
Cl 148.761 99.327 2.981
Cl 57.321 101.005 6.417
Cl 72.423 32.898 3.626
Cl 33.839 74.902 113.467
Cl 41.662 61.876 98.152
Cl 141.776 72.466 32.322
Cl 110.679 159.790 137.402
Cl 54.302 124.099 80.744
Cl 61.537 74.075 9.813
Cl 161.170 147.555 46.426
Cl 135.351 55.038 19.657
Cl 95.673 129.916 5.277
Cl 12.268 90.479 159.601
Cl 161.091 83.482 154.447
Cl 27.541 143.742 70.659
Cl 73.639 13.221 48.837
Cl 93.525 43.114 119.532
Cl 63.878 76.637 12.577
Cl 3.650 87.847 82.750
Cl 97.339 85.434 135.395
Cl 111.309 63.459 136.594
Cl 161.320 108.829 107.931
Cl 52.613 55.490 114.443
Cl 118.503 85.453 98.611
Cl 137.813 163.775 117.869
Cl 57.877 55.152 2.027
Cl 20.678 18.340 87.992
Cl 56.763 119.137 31.908
Cl 91.741 74.711 39.145
Cl 46.205 108.333 125.372
Cl 15.201 81.320 14.080
Cl 143.381 127.079 18.436
Cl 58.415 21.927 84.128
Cl 51.738 128.754 78.319
Cl 135.929 150.869 50.716
Cl 5.263 112.994 161.398
Cl 83.414 167.274 73.193
Cl 49.427 137.714 151.789
Cl 121.281 77.819 162.880
Cl 142.130 152.596 114.233
Cl 137.193 48.596 26.413
Cl 98.204 38.746 56.323
Cl 112.013 135.902 32.225
Cl 133.329 151.810 77.364
Cl 6.861 45.884 99.357
Cl 20.600 70.502 114.730
Cl 42.659 1.256 75.235
Cl 11.747 141.899 143.521
Cl 139.017 6.768 29.936
Cl 169.892 94.440 25.158
Cl 99.410 122.792 101.934
Cl 13.125 13.245 111.203
Cl 159.461 19.301 37.558
Cl 80.574 134.275 82.921
Cl 19.053 122.467 19.970
Cl 95.706 118.733 143.705
Cl 13.185 166.259 90.795
Cl 66.094 50.332 114.721
Cl 17.497 28.094 168.269
Cl 64.347 50.662 126.702
Cl 54.947 12.025 14.672
Cl 30.588 60.877 115.782
Cl 80.061 92.705 146.710
Cl 70.395 51.725 168.389
Cl 49.631 26.277 144.992
Cl 3.918 108.046 2.806
Cl 20.725 91.634 120.611
Cl 12.272 98.799 13.133
Cl 81.293 144.938 60.803
Cl 51.919 8.313 118.831
Cl 135.637 30.965 58.330
Cl 109.307 141.880 89.395
Cl 101.939 23.451 146.332
Cl 115.238 157.844 24.885
Cl 123.990 31.056 133.175
Cl 14.944 7.345 110.134
Cl 50.251 41.548 121.644
Cl 46.905 106.445 67.334
Cl 47.032 117.688 35.724
Cl 126.224 19.812 121.215
Cl 129.066 96.253 12.687
Cl 112.926 61.987 60.778
Cl 56.206 20.140 165.920
Cl 74.495 152.029 104.707
Cl 0.518 91.563 113.385
Cl 19.579 90.512 141.029
Cl 43.506 102.784 116.752
Cl 15.456 70.742 104.682
Cl 29.503 86.974 34.965
Cl 150.045 161.753 53.008
Cl 12.335 169.535 51.015
Cl 54.662 114.069 158.195
Cl 6.562 8.690 7.737
Cl 160.452 69.863 131.801
Cl 162.144 97.882 122.864
Cl 132.710 23.346 130.343
Cl 130.382 91.231 46.470
Cl 110.249 64.635 165.185
Cl 149.119 86.976 150.941
Cl 106.791 82.252 148.834
Cl 95.698 45.168 55.963
Cl 126.364 79.440 162.555
Cl 7.085 122.495 47.968
Cl 5.218 88.825 75.301
Cl 165.643 78.285 82.141
Cl 122.135 103.161 99.950
Cl 62.052 3.566 97.597
Cl 90.236 132.489 39.687
Cl 150.120 135.588 87.489
Cl 116.574 150.029 103.262
Cl 141.646 116.011 147.952
Cl 1.794 94.119 16.082
Cl 60.229 138.056 137.138
Cl 16.788 51.799 18.832
Cl 119.371 141.303 28.338
Cl 106.250 87.774 74.835
Cl 163.817 29.731 42.915
Cl 160.685 151.390 149.729
Cl 6.179 5.789 26.638
Cl 71.857 130.893 5.478
Cl 125.803 150.707 132.582
Cl 10.176 160.370 103.460
Cl 109.457 48.249 160.472
Cl 19.939 59.368 52.081
Cl 59.210 143.296 83.250
Cl 71.286 116.035 105.143
Cl 48.728 143.619 80.192
Cl 65.239 65.861 164.138
Cl 44.425 28.977 115.385
Cl 61.956 159.030 105.534
Cl 23.857 43.412 95.219
Cl 128.489 158.276 83.306
Cl 159.446 124.308 103.353
Cl 93.392 123.026 60.571
Cl 10.452 68.864 79.948
Cl 48.860 25.413 93.740
Cl 44.114 88.713 39.640
Cl 80.178 2.487 31.506
Cl 161.084 61.592 146.548
Cl 151.476 118.503 10.610
Cl 164.794 96.171 137.790
Cl 80.661 25.050 79.202
Cl 144.609 146.184 10.953
Cl 48.311 49.746 83.803
Cl 159.610 132.757 71.261
Cl 11.620 147.533 52.519
Cl 164.945 86.581 159.144
Cl 100.439 38.488 137.703
Cl 168.826 65.309 43.522
Cl 22.396 54.671 152.042
Cl 139.754 80.590 158.997
Cl 163.241 166.583 68.689
Cl 135.953 160.132 4.042
Cl 145.473 13.730 36.034
Cl 87.683 46.522 58.084
Cl 39.454 54.736 12.375
Cl 26.709 142.773 40.635
Cl 68.691 1.146 71.910
Cl 65.593 63.080 70.773
Cl 134.295 168.781 86.987
Cl 96.049 53.820 129.905
Cl 34.086 41.501 163.492
Cl 58.409 43.455 142.677
Cl 53.463 72.322 0.075
Cl 26.216 146.030 33.251
Cl 22.938 34.927 89.675
Cl 16.028 13.436 80.706
Cl 89.738 85.946 97.577
Cl 14.710 19.873 157.712
Cl 19.786 22.829 110.684
Cl 57.223 127.850 127.348
Cl 160.691 66.600 142.707
Cl 78.839 5.847 81.301
Cl 121.462 18.885 92.657
Cl 85.852 93.182 120.740
Cl 54.000 108.591 77.628
Cl 28.157 53.435 148.466
Cl 6.801 102.533 117.083
Cl 87.112 94.113 85.493
Cl 59.039 146.189 71.813
Cl 42.703 90.249 147.966
Cl 156.872 159.669 55.645
Cl 24.056 88.247 44.818
Cl 9.736 78.095 120.292
Cl 161.379 12.509 130.768
Cl 43.287 38.416 76.448
Cl 10.143 42.363 131.037
Cl 25.439 142.603 9.891
Cl 142.539 36.052 7.625
Cl 132.597 69.516 151.183
Cl 8.693 36.457 150.175
Cl 38.771 69.193 23.081
Cl 165.005 103.924 124.715
Cl 123.194 120.136 12.565
Cl 94.597 152.928 132.606
Cl 86.165 142.444 73.694
Cl 147.718 0.168 35.663
Cl 128.453 28.558 79.979
Cl 0.529 107.269 17.605
Cl 102.541 131.949 165.776
Cl 78.164 120.277 126.259
Cl 99.303 24.656 76.491
Cl 47.364 88.742 22.145
Cl 138.828 86.708 96.574
Cl 149.645 70.825 50.069
Cl 157.413 74.959 98.602
Cl 73.606 119.123 137.961
Cl 35.117 121.688 8.438
Cl 148.540 111.689 115.975
Cl 19.160 91.528 10.128
Cl 126.767 92.235 65.808
Cl 43.831 94.541 103.933
Cl 136.178 64.635 139.508
Cl 83.293 21.685 0.149
Cl 31.268 49.550 33.325
Cl 39.629 91.328 119.021
Cl 22.699 106.713 107.448
Cl 136.646 120.405 116.168
Cl 32.079 99.993 28.621
Cl 69.064 55.860 93.932
Cl 140.848 149.644 37.541
Cl 17.083 60.614 11.168
Cl 51.090 36.848 105.417
Cl 9.515 38.625 65.949
Cl 43.497 104.265 75.627
Cl 68.163 167.607 150.842
Cl 116.983 54.604 47.657
Cl 143.530 4.927 30.072
Cl 131.735 8.152 97.208
Cl 90.277 10.118 43.218
Cl 120.117 150.428 62.898
Cl 140.105 121.898 70.585
Cl 153.214 150.357 49.539
Cl 74.583 109.994 76.736
Cl 162.565 81.054 98.088
Cl 65.679 46.298 114.284
Cl 9.266 87.352 30.826
Cl 153.164 43.080 151.049
Cl 164.431 106.024 86.441
Cl 90.465 20.257 56.860
Cl 108.456 1.706 147.866
Cl 50.007 103.593 34.542
Cl 144.497 166.525 151.415
Cl 138.757 10.660 98.078
Cl 118.929 131.470 139.516
Cl 82.680 129.507 63.193
Cl 25.028 34.683 134.039
